6
-115.717509364
C    0.00000000   0.00000000   0.00000000
H    0.00000000   0.00000000   1.09337900
H    1.04700500   0.00000000  -0.34139600
H   -0.47680900  -0.93213300  -0.34139600
O   -0.70906600   1.15915200  -0.40758800
H   -0.71762800   1.17314900  -1.37617200
6
-115.717355837
C    0.00000000   0.00000000   0.00000000
H    0.00000000   0.00000000   1.09337900
H    1.04700500   0.00000000  -0.34139600
H   -0.47680900  -0.93213300  -0.34139600
O   -0.70906600   1.15915200  -0.40758800
H   -0.85646000   1.09294700  -1.36274000
6
-115.716925497
C    0.00000000   0.00000000   0.00000000
H    0.00000000   0.00000000   1.09337900
H    1.04700500   0.00000000  -0.34139600
H   -0.47680900  -0.93213300  -0.34139600
O   -0.70906600   1.15915200  -0.40758800
H   -0.99527900   1.02205500  -1.32285300
6
-115.71630366
C    0.00000000   0.00000000   0.00000000
H    0.00000000   0.00000000   1.09337900
H    1.04700500   0.00000000  -0.34139600
H   -0.47680900  -0.93213300  -0.34139600
O   -0.70906600   1.15915200  -0.40758800
H   -1.12986600   0.96262800  -1.25772300
6
-115.715613235
C    0.00000000   0.00000000   0.00000000
H    0.00000000   0.00000000   1.09337900
H    1.04700500   0.00000000  -0.34139600
H   -0.47680900  -0.93213300  -0.34139600
O   -0.70906600   1.15915200  -0.40758800
H   -1.25613200   0.91647200  -1.16932800
6
-115.714988007
C    0.00000000   0.00000000   0.00000000
H    0.00000000   0.00000000   1.09337900
H    1.04700500   0.00000000  -0.34139600
H   -0.47680900  -0.93213300  -0.34139600
O   -0.70906600   1.15915200  -0.40758800
H   -1.37024100   0.88498800  -1.06035500
6
-115.714539567
C    0.00000000   0.00000000   0.00000000
H    0.00000000   0.00000000   1.09337900
H    1.04700500   0.00000000  -0.34139600
H   -0.47680900  -0.93213300  -0.34139600
O   -0.70906600   1.15915200  -0.40758800
H   -1.46872600   0.86913300  -0.93411400
6
-115.714329348
C    0.00000000   0.00000000   0.00000000
H    0.00000000   0.00000000   1.09337900
H    1.04700500   0.00000000  -0.34139600
H   -0.47680900  -0.93213300  -0.34139600
O   -0.70906600   1.15915200  -0.40758800
H   -1.54859300   0.86939000  -0.79444200
6
-115.71435279
C    0.00000000   0.00000000   0.00000000
H    0.00000000   0.00000000   1.09337900
H    1.04700500   0.00000000  -0.34139600
H   -0.47680900  -0.93213300  -0.34139600
O   -0.70906600   1.15915200  -0.40758800
H   -1.60741600   0.88575000  -0.64558200
6
-115.71454425
C    0.00000000   0.00000000   0.00000000
H    0.00000000   0.00000000   1.09337900
H    1.04700500   0.00000000  -0.34139600
H   -0.47680900  -0.93213300  -0.34139600
O   -0.70906600   1.15915200  -0.40758800
H   -1.64340900   0.91771600  -0.49205700
6
-115.714799276
C    0.00000000   0.00000000   0.00000000
H    0.00000000   0.00000000   1.09337900
H    1.04700500   0.00000000  -0.34139600
H   -0.47680900  -0.93213300  -0.34139600
O   -0.70906600   1.15915200  -0.40758800
H   -1.65547700   0.96431800  -0.33853200
6
-115.715006187
C    0.00000000   0.00000000   0.00000000
H    0.00000000   0.00000000   1.09337900
H    1.04700500   0.00000000  -0.34139600
H   -0.47680900  -0.93213300  -0.34139600
O   -0.70906600   1.15915200  -0.40758800
H   -1.64325400   1.02413800  -0.18967200
6
-115.715075446
C    0.00000000   0.00000000   0.00000000
H    0.00000000   0.00000000   1.09337900
H    1.04700500   0.00000000  -0.34139600
H   -0.47680900  -0.93213300  -0.34139600
O   -0.70906600   1.15915200  -0.40758800
H   -1.60711100   1.09536000  -0.04999900
6
-115.714961831
C    0.00000000   0.00000000   0.00000000
H    0.00000000   0.00000000   1.09337900
H    1.04700500   0.00000000  -0.34139600
H   -0.47680900  -0.93213300  -0.34139600
O   -0.70906600   1.15915200  -0.40758800
H   -1.54814600   1.17581900   0.07624100
6
-115.714675422
C    0.00000000   0.00000000   0.00000000
H    0.00000000   0.00000000   1.09337900
H    1.04700500   0.00000000  -0.34139600
H   -0.47680900  -0.93213300  -0.34139600
O   -0.70906600   1.15915200  -0.40758800
H   -1.46815100   1.26307000   0.18521500
6
-115.714279612
C    0.00000000   0.00000000   0.00000000
H    0.00000000   0.00000000   1.09337900
H    1.04700500   0.00000000  -0.34139600
H   -0.47680900  -0.93213300  -0.34139600
O   -0.70906600   1.15915200  -0.40758800
H   -1.36955600   1.35446400   0.27360900
6
-115.713875621
C    0.00000000   0.00000000   0.00000000
H    0.00000000   0.00000000   1.09337900
H    1.04700500   0.00000000  -0.34139600
H   -0.47680900  -0.93213300  -0.34139600
O   -0.70906600   1.15915200  -0.40758800
H   -1.25535800   1.44722100   0.33874000
6
-115.713574608
C    0.00000000   0.00000000   0.00000000
H    0.00000000   0.00000000   1.09337900
H    1.04700500   0.00000000  -0.34139600
H   -0.47680900  -0.93213300  -0.34139600
O   -0.70906600   1.15915200  -0.40758800
H   -1.12902500   1.53852500   0.37862600
6
-115.71346331
C    0.00000000   0.00000000   0.00000000
H    0.00000000   0.00000000   1.09337900
H    1.04700500   0.00000000  -0.34139600
H   -0.47680900  -0.93213300  -0.34139600
O   -0.70906600   1.15915200  -0.40758800
H   -0.99439800   1.62560100   0.39205800
