%nproc=8
%mem=20GB
#p b3lyp em=gd3bj 6-31g(d) scan nosymm

Title Card Required

0 1
 C             
 H                  1            B1
 H                  1            B2    2            A1
 H                  1            B3    2            A2    3            D1    0
 O                  1            B4    2            A3    3            D2    0
 H                  5            B5    1            A4    2            D3    0

   B1             1.09337920
   B2             1.10125884
   B3             1.10125884
   B4             1.41863900
   B5             0.96872260
   A1           108.05956655
   A2           108.05956655
   A3           106.69693538
   A4           107.66742719
   D1           117.09085412
   D2          -121.45457294
   D3           180.00000000 18 10.


